30
Properties=species:S:1:pos:R:3 calc_mode=gop-qsc opt_step=136 total_energy=-76.73045211486945 pbc="F F F"
Ag      -1.42607703      -5.23245860      -0.05641860
Ag       0.64156055      -1.01624152      -3.16790469
Ag       1.18265911      -4.49735029       0.21921513
Ag      -2.66453162      -2.83484368      -0.49283051
Ag      -0.78781382      -3.07900538       1.55756411
Ag      -1.50575121       1.61206626       2.70496414
Ag       3.32742477      -0.25860098       0.17141799
Ag      -2.28916024      -0.78729381       1.50554523
Ag       1.77753283      -2.15004127       1.56659805
Ag      -3.35305411      -0.20795494      -1.08433192
Ag       0.85791445       0.44734207       1.23667338
Ag       1.10261072       1.85228138       3.58473748
Ag      -2.02435918      -1.71076727      -2.96412249
Ag      -1.34150219       1.34488348      -0.02678496
Ag      -0.62925133       3.50218183      -1.50394883
Ag       2.01569041       3.83885522      -0.80636372
Ag      -0.09975641      -0.87719446       3.35370916
Ag       1.21566980       1.20599171      -1.38212596
Ag      -1.28759313       0.96633843      -2.73204652
Ag       2.93373391      -0.08254591       2.97487945
Ag      -0.28328371      -3.59397270      -1.95725821
Ag       2.09972944      -2.32306485      -1.20764651
Ag      -0.40795820      -1.19998363      -0.59595461
Ag       3.24050949      -0.24605530      -2.63075456
Ag       0.32010605       3.22107479       1.24764727
Ag      -2.33622332       3.77950281       0.81072637
Ag       2.93713384       2.26105390       1.34927247
Ag      -3.30319369       2.56443500      -1.50890773
Ag       3.95641538       2.00287311      -1.24612912
Ag      -3.86918155       1.49849461       1.08057871
