30
Properties=species:S:1:pos:R:3 calc_mode=gop-qsc opt_step=2357 total_energy=-77.07563755732448 pbc="F F F"
Ag      -2.55669766       3.13890988      -0.93643139
Ag      -3.20137107      -2.28553601       2.74724015
Ag       3.31109021      -0.54581109      -2.61213868
Ag       2.75769758       2.11156029      -1.86428905
Ag       2.13159483      -2.30927144      -0.76342235
Ag      -3.17858191      -1.35322589       0.16581250
Ag       0.99763201       2.69699141       3.19191984
Ag      -0.46773194      -2.48249905       3.02621880
Ag       1.33426704       0.81077288      -4.04288611
Ag      -3.80809316       1.35690570       0.96101756
Ag       3.07214274       0.86212595       2.83627221
Ag      -1.73304799      -0.00047099       2.39440633
Ag       0.93989529      -1.89212777      -3.29250437
Ag       0.88962375       0.13639500      -1.43420283
Ag       0.78617254       3.39386074      -3.29917099
Ag       3.26023405       0.14533018       0.11682562
Ag      -3.69210785       0.66908757      -1.80656945
Ag      -0.27531092      -3.62313196      -1.44979838
Ag       0.63561170      -0.03236127       3.88685155
Ag       2.62656718       2.80356395       0.86814807
Ag       0.77998812       0.80221150       1.26793580
Ag       0.87309998      -4.01833645       1.08445851
Ag      -1.16730419       1.51109873      -2.88386288
Ag      -1.48340145       0.76576684      -0.25906363
Ag       0.28079438       2.86771471      -0.65909699
Ag      -1.55064324      -1.23356922      -2.18127632
Ag      -0.33361658      -1.60593803       0.42065529
Ag      -1.90155701      -3.79761458       0.86313016
Ag       2.02508924      -1.61382146       1.98943441
Ag      -1.35203567       2.72141985       1.66438662
