30
Properties=species:S:1:pos:R:3 calc_mode=gop-qsc opt_step=424 total_energy=-76.00090819516572 pbc="F F F"
Ag       3.52925045      -0.73252771      -0.73151414
Ag      -2.18491522       0.29732089      -3.36536300
Ag      -2.93953643       2.72365924       0.64562264
Ag       2.64105178      -3.31518403       0.30273244
Ag      -0.20164990      -3.45907892      -0.10169532
Ag      -1.54393379      -1.46833659       1.23606727
Ag       1.97964232       0.72370101       2.75931453
Ag      -2.74452516      -1.90217798       3.63002778
Ag      -3.13292702       0.18299925      -0.48250682
Ag       1.57040189      -2.19520686      -1.94717917
Ag      -0.65850062       1.08763229       0.81494002
Ag       3.63909782      -1.37154753       1.98535791
Ag      -0.50134691       3.92696157       0.43119242
Ag       3.55476686       1.99691604      -1.49442807
Ag       1.14737961      -1.08460681       0.80979412
Ag       2.67817028       0.01706220      -3.36884990
Ag      -0.85626956      -1.04062062      -1.40582284
Ag       1.84028410       2.56586449       0.74138130
Ag      -0.54769014      -0.09848280       3.41089925
Ag       4.17788855       1.18614547       1.11043753
Ag       1.14908485       0.74799775      -1.25921885
Ag      -2.59240301      -3.91452930       1.63375167
Ag      -3.02347985       0.60363868       2.37764726
Ag       0.34264123       1.64809933      -3.74817106
Ag      -2.93525246      -2.72308215      -0.83786223
Ag       0.15802887      -1.04885090      -3.99586213
Ag       1.15725780       3.47145545      -1.80014969
Ag      -1.34749391       2.19030121      -1.60293841
Ag      -4.29638005      -1.67530899       1.33748527
Ag      -0.05864238       2.65978632       2.91491024
