30
Properties=species:S:1:pos:R:3 calc_mode=gop-qsc opt_step=1287 total_energy=-76.83840728672497 pbc="F F F"
Ag       1.44111860       3.47604938       1.49283929
Ag      -1.18211942      -0.04278393       0.84705882
Ag       0.89580056       2.06679381       3.90213944
Ag      -3.69678874      -0.62669453      -0.24204642
Ag      -1.09162389       2.43065173       2.00397443
Ag       1.31623735       0.72733164       1.43953757
Ag       2.06929134      -0.53247951       3.68782818
Ag       3.40756295       1.92554078       2.88554537
Ag       3.39278944       2.09320448       0.11390020
Ag      -0.57809672       3.72855723      -0.41716293
Ag      -0.41623581      -2.53470793      -2.85067663
Ag       0.42630421      -2.11580877       1.91681319
Ag       0.85359761      -1.19951240      -0.62186194
Ag      -2.51448490      -1.92147533       2.26201132
Ag       0.66982892      -3.95088845      -0.58787761
Ag      -1.55601619      -0.27047091      -4.43070758
Ag      -3.34924979       0.76538544       2.23251017
Ag      -3.14723818      -1.90960131      -2.70847174
Ag      -2.68378959       1.96949329      -0.36715064
Ag       3.27922868      -0.24042786      -1.33011865
Ag       1.08157238      -0.21993498      -3.27252159
Ag      -1.31757939      -0.10136374      -1.79039845
Ag      -1.67695532      -2.55372073      -0.32266635
Ag       3.84297009      -0.36168973       1.43607003
Ag       2.90627001      -2.67610762       0.37542672
Ag       0.92256301       1.57889333      -1.15255275
Ag      -1.23874800       2.37541966      -2.83019247
Ag      -3.64532483       0.84667787      -2.78190168
Ag       2.35326192      -2.64192082      -2.41560634
Ag      -0.76414629      -0.08441007       3.52625903
