30
Properties=species:S:1:pos:R:3 calc_mode=gop-qsc opt_step=1421 total_energy=-75.66109820509485 pbc="F F F"
Ag       2.47969844       1.59656977       5.01414662
Ag      -0.18444855       2.02698559       4.71755737
Ag       3.51078026       0.05170521       3.05154424
Ag       0.62499667      -3.75240099      -1.90127411
Ag      -3.12867128      -2.36306430      -1.41415777
Ag      -1.42121151      -3.79129733       0.21618310
Ag      -0.88194404       0.33011192      -3.13085953
Ag       1.20821630       0.65441966      -1.26508798
Ag       0.92578620      -0.44729698       3.96391754
Ag      -1.26260411      -2.42856069      -3.41465680
Ag      -0.68856466       0.71703138       0.80780444
Ag      -1.13376950       2.97682540       2.29758606
Ag       1.29391665      -1.35862196      -3.35090413
Ag      -2.73714935       0.41203238      -1.11991690
Ag       1.27894960      -3.44980512       0.74639946
Ag       1.67180885      -0.68997992       1.18194679
Ag       2.62641480      -1.91172995      -1.06989557
Ag       1.56210320       1.32740415      -4.04861970
Ag       0.81774040       3.08468708       0.12032266
Ag      -1.72831294       0.26023261       3.30642288
Ag       3.57713258       0.21218348      -2.56984881
Ag      -3.34436824       1.48158257       1.41496312
Ag       2.68421317       2.82486715      -1.99372445
Ag       1.42256445       1.80405312       2.45400921
Ag      -0.51569691      -2.01832105       2.20905959
Ag      -2.82801846      -1.24486726       1.07989029
Ag      -0.46617073      -1.47464015      -0.83975957
Ag      -3.39639732      -0.69125389      -3.56762056
Ag      -1.89519687       2.96403884      -0.41444007
Ag      -0.07179710       2.89710929      -2.48098743
