30
Properties=species:S:1:pos:R:3 calc_mode=gop-qsc opt_step=4253 total_energy=-76.93321001068108 pbc="F F F"
Ag       0.37766249       0.88437233       0.71230024
Ag       2.45481464      -1.59358776      -2.93857001
Ag      -1.60497147       0.24332418      -1.10491774
Ag      -1.95997957       1.77279885      -3.45053634
Ag      -3.17230754       3.85545783       1.60664984
Ag       3.09603553       0.68794391       1.30932945
Ag      -4.12666888       0.73076964      -2.12510493
Ag       1.84224253      -3.81636869      -1.41477850
Ag      -1.33300549       2.87873429       3.42803850
Ag       1.34154533       2.44293285       2.78064420
Ag       0.24454380       0.07642864      -3.22996914
Ag       3.96471227      -1.70301554       2.45705333
Ag      -2.64971602       2.80696345      -0.91179130
Ag      -2.34395704      -1.01473979      -3.44091753
Ag       2.11394136       3.04846490       0.16743706
Ag      -0.10699378      -2.71901125      -3.16506499
Ag       0.07157017       2.44168606      -1.66189379
Ag       2.32425704       0.07520552       3.87931668
Ag      -0.55364908       3.49821603       0.86140815
Ag      -3.84310383      -0.80166239       0.12222668
Ag       3.29487264      -1.64166032      -0.25403715
Ag       2.30010950       0.74300012      -1.40045384
Ag       1.29562519      -1.52093225       1.87160075
Ag      -2.34991895       1.24873128       1.42145043
Ag       2.62876851      -3.85233536       1.24952378
Ag      -2.01377943      -2.55916043      -1.14127904
Ag      -0.39325897       0.28171758       3.32005365
Ag      -1.40878565      -1.36811095       1.29905382
Ag      -0.06957028      -3.70641789       0.58738923
Ag       0.57896498      -1.41974486      -0.83416149
