30
Properties=species:S:1:pos:R:3 calc_mode=gop-qsc opt_step=149 total_energy=-77.06804403357637 pbc="F F F"
Ag       2.34431043       1.25828258      -3.84265358
Ag      -2.80922244      -1.03062964       3.30071568
Ag       0.65960034      -3.32020006       0.70335996
Ag       3.19055026      -2.51641776      -0.13430822
Ag       4.05656433       0.12051525       0.24330947
Ag       1.48357736      -1.36126106      -4.21778024
Ag       0.70155105       3.12274225      -2.63705139
Ag       0.49402112       1.40368212      -0.46801849
Ag      -0.13056364      -1.90382189       3.00608276
Ag      -1.31174057       3.50186126      -0.72762392
Ag      -1.14439852       0.17233085       1.42122278
Ag      -0.27899817       2.86415038       1.81758003
Ag       2.17669806      -0.47178675      -1.69782609
Ag       1.28381536      -3.12780917      -2.07124476
Ag      -2.95079855       2.28361269       1.17332392
Ag      -3.03898165      -1.75679716      -1.48032839
Ag      -2.22004964       0.89336465      -1.14721602
Ag      -0.91692456      -0.44247660       5.19383314
Ag       3.03186871       2.19439319      -1.30903621
Ag      -0.37859265      -1.25315921      -0.84854054
Ag       1.56097947      -0.67565246       1.13759471
Ag      -1.03099023      -2.15092999      -3.39217779
Ag       1.35242188       4.06699193      -0.10215031
Ag      -2.04437328      -2.51145982       1.04781181
Ag       0.75199973       0.78384593       3.39105924
Ag      -0.21333297       0.50783201      -3.05585951
Ag       2.40760583       2.00203718       1.46563380
Ag      -3.81380570      -0.34388939       0.79735688
Ag      -1.94759306       1.59364115       3.67646879
Ag      -1.26519833      -3.90299246      -1.24353751
