30
Properties=species:S:1:pos:R:3 calc_mode=gop-qsc opt_step=2368 total_energy=-76.5435321571886 pbc="F F F"
Ag       4.02544957      -1.10603969       0.35944137
Ag       2.12600326      -0.81358807      -3.86372336
Ag       1.26052883      -3.38446384      -3.45194427
Ag       1.79839182       2.76546782      -0.79847949
Ag       1.91152956      -1.84186181      -1.27192238
Ag      -3.54595190      -0.08337110       0.58598400
Ag       1.75764389       2.59750192       1.98424528
Ag      -0.50416039      -2.18846411       3.43123943
Ag      -1.67029749       1.24250735      -3.67147850
Ag      -3.12074541       2.57853210       1.40685189
Ag       3.21753517       0.07225837       2.70504225
Ag      -2.19824711       0.32765166       2.91176791
Ag      -0.56359476      -1.37077612      -3.80538256
Ag       0.48689859       0.56059558      -2.06133989
Ag      -0.68279342       3.14593095      -1.93633437
Ag       3.31103774       0.57246440      -1.79510213
Ag      -3.08681212       1.97396111      -1.30779158
Ag      -0.57007509      -2.93902290      -1.42740219
Ag       0.51477801       0.29417567       2.95311286
Ag       4.02551923       1.71056466       0.62067525
Ag       1.62260557       0.29040173       0.43809442
Ag      -0.88166214      -3.84166709       1.22505234
Ag      -2.03079296      -0.55297444      -1.63664231
Ag      -0.85455283       1.49420560       0.34350464
Ag      -0.22247865       4.12960531       0.62938048
Ag      -3.04855560      -2.74958019      -0.28716760
Ag      -0.85922709      -1.17014804       0.81999639
Ag      -3.00802805      -2.25849553       2.36522139
Ag       1.62571492      -2.19734022       1.60321482
Ag      -0.83566114       2.74196892       2.93188591
