30
Properties=species:S:1:pos:R:3 calc_mode=gop-qsc opt_step=2024 total_energy=-77.09814876973648 pbc="F F F"
Ag      -3.18461308      -2.99202810      -0.20240889
Ag      -0.92447315      -0.24251473       4.02399287
Ag      -0.51723857       3.79241471       1.29326168
Ag      -0.72811542       3.40811028      -1.39498551
Ag      -0.36046833       2.05660012      -3.83561552
Ag      -0.74169149       2.40929035       3.59193017
Ag      -2.18092092      -1.63452369       2.01428664
Ag       3.86634846       0.80504282       1.38740821
Ag       1.89502771       0.45457732      -3.72947718
Ag       1.57555739      -0.51871435       0.55799811
Ag       0.49603455      -2.05797606       2.54828841
Ag       1.54988270      -1.71960372      -1.90710878
Ag      -3.51385497      -0.16089762       0.10840985
Ag       0.40558915       0.91225610      -1.43751657
Ag      -0.71104318       0.90962379       1.24633920
Ag       1.69419717       2.35276970       0.53289842
Ag       4.02741160      -1.55709219      -0.21307492
Ag      -3.08249891      -1.47780691      -2.43063826
Ag      -3.03959052       0.99214832       2.67423622
Ag       1.86620594       3.01165436      -2.36866708
Ag      -0.61594039      -0.77026399      -3.40049592
Ag      -0.92368644      -3.32619053      -2.13864833
Ag      -0.99885923      -1.21412004      -0.49394884
Ag       1.96909537      -3.25338865       0.44334728
Ag      -2.27508786       1.12485771      -2.01403217
Ag      -2.77416520       2.52792930       0.34541755
Ag       3.21764770      -1.64454873       2.47137995
Ag       1.50411578       0.72572106       2.99755168
Ag       3.21523037       0.80994708      -1.33284393
Ag      -0.71009623      -3.72327372       0.66271566
