30
Properties=species:S:1:pos:R:3 calc_mode=gop-qsc opt_step=2689 total_energy=-77.02923775171394 pbc="F F F"
Ag       0.41974592       0.31841957      -4.81576424
Ag      -1.61559793      -2.70041993       0.46506793
Ag       1.01753666       3.48715915      -2.01071339
Ag      -3.48280920      -0.67838219       1.22023404
Ag       3.25353876      -2.69216814       0.84673707
Ag      -3.33183328      -1.57888733      -1.44652127
Ag      -2.73517107       1.05208323      -0.87897409
Ag       1.52396963       1.55234502       2.13587284
Ag       0.95599276      -3.03826965      -0.70590642
Ag       0.01583538       1.70099244      -0.26610127
Ag      -1.63036775       3.71749071      -0.96392408
Ag      -0.54520514       2.40554382       3.64496909
Ag      -1.32891066      -3.27610957      -2.30448321
Ag      -0.64693798      -0.76093390      -1.28847751
Ag      -2.53074113       0.52403542       3.59325744
Ag      -0.96646233       1.69512353      -2.89605654
Ag      -1.84992120      -2.09373431       3.17280127
Ag       0.69960209      -2.44255144       2.07584711
Ag      -0.84069132      -0.13696667       1.49296910
Ag       3.19567763      -1.56279068      -1.70997359
Ag       0.89090840      -1.90683066      -3.28964714
Ag       2.81520466      -0.78225304       2.80672995
Ag      -1.80885988      -0.89192492      -3.73766734
Ag       1.61983007       0.67087037      -2.35635262
Ag      -2.19958650       2.33809849       1.46528849
Ag       0.26215027      -0.29473756       3.96033515
Ag       2.77439820       2.10578188      -0.27372115
Ag       1.62729680      -0.49953430       0.26908608
Ag       0.14599443       3.88488838       1.30317723
Ag       4.29541372      -0.11633773       0.49191106
