30
Properties=species:S:1:pos:R:3 calc_mode=gop-qsc opt_step=550 total_energy=-76.75339801130414 pbc="F F F"
Ag      -0.52528712       0.76615814      -4.30460283
Ag      -1.77063334      -1.60006683       4.10581353
Ag       1.51349288      -1.16275935       3.50274879
Ag      -0.41410697       0.75163797       4.32084488
Ag       2.83036611       1.96927280      -0.03494946
Ag       2.19779471      -2.77329762      -1.42752959
Ag      -0.30613334      -2.60053091       0.00394059
Ag       3.60703043      -0.31932230       1.70056141
Ag       0.02889735       1.70457278       0.00396236
Ag      -1.23705225       2.47665108      -2.27493672
Ag       3.55933024      -0.31689772      -1.79375491
Ag      -0.52324485      -0.42238234       1.80313732
Ag      -0.25617433      -3.20865344      -2.63432587
Ag      -1.16564023       2.48073791       2.32163820
Ag      -2.70735170      -2.05145137      -1.38805693
Ag      -2.96862081       0.45661302       2.78521609
Ag       1.46722368       1.38714689      -2.42580834
Ag      -1.85067115      -1.59959972      -4.06899507
Ag       1.53177859       1.38502622       2.39223704
Ag      -0.56745324      -0.42211903      -1.78807317
Ag      -2.67639777      -2.04491516       1.44432801
Ag      -0.19244230      -3.20127397       2.64221118
Ag      -2.50045468       0.50315933       0.02711035
Ag      -3.03768840       0.44635173      -2.71972258
Ag       1.41664891      -1.16069095      -3.54412656
Ag      -1.37627361       4.05362030       0.02515536
Ag       1.04893248       3.89832805      -1.38102760
Ag       1.09212248       3.89779711       1.35713819
Ag       1.54975804      -0.51582739      -0.01826596
Ag       2.23225017      -2.77728525       1.36813232
