30
Properties=species:S:1:pos:R:3 calc_mode=gop-qsc opt_step=255 total_energy=-76.9767540448698 pbc="F F F"
Ag      -1.50075338       1.05357974      -3.33232261
Ag      -1.93541629       0.45605480       1.07528877
Ag       2.79500391      -0.89303017       3.09156008
Ag       0.91919532      -2.61380572      -0.66938308
Ag      -1.09973998       2.33959582      -0.84290151
Ag       1.96019269      -0.02245067      -1.12577875
Ag       1.00123497       1.99741781      -2.66273283
Ag       3.56107434       0.83576766       1.04547804
Ag      -1.66945682      -3.19562875      -1.37114002
Ag       1.31716547      -2.96428428       2.08748842
Ag      -0.70149767       0.03426965       3.51914543
Ag      -0.84288811      -0.51963706      -1.15946758
Ag       1.36706771       2.33149448       0.30022022
Ag      -1.19862114      -2.27093342       1.23740626
Ag       3.02228350      -2.16545458      -2.44239771
Ag       0.65467049      -0.84995357      -3.42456757
Ag       0.79435806      -0.33217924       1.25846813
Ag      -3.51543949      -1.55480708      -0.09120668
Ag       3.53767979       2.23863945      -1.45096454
Ag      -3.24402957       2.89444858       0.85426168
Ag      -3.05358090       1.56869622       3.32676288
Ag       4.72306173      -0.26224485      -1.30863259
Ag       1.65312825       1.61161138       3.02261509
Ag      -4.70503977       0.57692346       1.27188272
Ag       3.16672560       0.41293817      -3.55722190
Ag       3.31915313      -1.87790575       0.49013921
Ag      -3.45772744       0.96976533      -1.25546685
Ag      -0.73529726       2.65271225       2.12216408
Ag      -3.21490775      -1.19554065       2.83301798
Ag      -2.91759942      -1.25605901      -2.84171477
