30
Properties=species:S:1:pos:R:3 calc_mode=gop-qsc opt_step=1494 total_energy=-76.83976145087178 pbc="F F F"
Ag       2.63213860       1.69142768      -3.06843604
Ag       0.21908970      -0.63856437       4.05426141
Ag       2.24025264      -2.18171301       2.89668702
Ag      -2.47495213       1.87372455       1.20207043
Ag       1.87028871       0.35965248       1.94784077
Ag       3.86381197      -0.54408086      -2.08717005
Ag      -1.80244437       2.92087250      -1.35480748
Ag       1.56423451      -0.94309186      -3.61341278
Ag      -2.88184156      -2.44490109       2.90127988
Ag      -0.00111619       1.26397859      -2.69531100
Ag      -3.47748367      -0.69997695       0.92661208
Ag      -4.00866699       1.22652857      -0.98236252
Ag      -0.24987645       1.91738520       2.89573124
Ag      -0.65805762      -0.77675941       1.46472302
Ag      -0.68893309       4.04926142       0.93710131
Ag      -1.83360511      -2.94842999       0.33889883
Ag       1.17279120       3.47731419      -1.32494297
Ag       1.85470411       3.17363704       1.48187430
Ag      -0.25768311      -2.71230715      -1.97284737
Ag      -2.38385053       0.19403561       3.41898543
Ag      -1.18217715      -0.98114023      -3.86801030
Ag       2.96343164       1.44837219      -0.35826555
Ag       0.04529320       1.53143485       0.15342942
Ag       1.20750909      -0.62435910      -0.92378729
Ag      -2.69210270       1.22230785      -3.35446153
Ag       1.00082214      -2.96218980       0.53282150
Ag      -0.30790493      -3.16837524       2.92743117
Ag       3.42486795      -1.45303712       0.48547548
Ag       2.52013827      -2.92230024      -1.80527273
Ag      -1.67867811      -0.34870632      -1.15613567
