30
Properties=species:S:1:pos:R:3 calc_mode=gop-qsc opt_step=1023 total_energy=-76.94789974293029 pbc="F F F"
Ag      -3.87735443       2.36513198      -0.39156840
Ag      -1.33024488       1.07151988      -3.54891789
Ag       1.17065060      -0.02925087      -3.86172019
Ag       2.73724908       0.10497868      -1.50060044
Ag       1.20866940      -1.68420838       3.12309942
Ag      -1.04761411      -1.81181519      -3.05508597
Ag      -2.89440462       0.10307184       1.31297383
Ag       1.28448621      -1.97254592       0.04016363
Ag      -0.24099356      -3.91465594      -1.38161969
Ag       0.85295175       2.36153842      -2.33091159
Ag       1.63681748       1.87993072       0.36430078
Ag       0.11810947      -3.84062471       1.54526171
Ag       0.34327301       4.24257597      -0.37662926
Ag      -1.57063729      -1.99378883      -0.00134740
Ag       1.77379309      -2.39531664      -2.59037411
Ag       3.93518219      -2.23357441      -0.65638642
Ag       0.01194466      -0.04230485      -1.36442109
Ag      -1.27293209       0.86489013       3.61582972
Ag      -2.26638274       4.53216665       0.35121423
Ag      -2.78725492       0.03605744      -1.48392743
Ag       3.01259119      -3.23222476       1.78376354
Ag       1.56127794       1.14426289       3.21250004
Ag      -0.07068692      -0.03200328       1.38314820
Ag      -0.14927799       3.09432433       2.20487979
Ag      -1.79828687       3.46112841      -2.19828617
Ag       3.02966891      -0.36513227       1.36037669
Ag      -1.54014142      -1.88543834       2.79976279
Ag      -1.22886263       1.97172679      -0.03168284
Ag      -2.89029374       2.66812422       2.23936657
Ag       2.28870323      -4.46854395      -0.56316208
