30
Properties=species:S:1:pos:R:3 calc_mode=gop-qsc opt_step=554 total_energy=-76.87650331741037 pbc="F F F"
Ag       3.12610690      -0.17005095       2.55514453
Ag      -1.01506788      -1.44453814       0.36377592
Ag       0.02081760      -0.08049705      -4.36170483
Ag       1.13055898      -1.92346814       2.02693254
Ag      -0.38239114      -4.11562747       1.48624237
Ag       0.47589480       0.00535378       3.88525751
Ag       2.64038586       0.65599892      -4.59755975
Ag      -1.51613867      -2.02698341       3.01588655
Ag      -2.51140865       0.79828139      -0.28706696
Ag       1.07145848      -2.98971879      -0.64426331
Ag       1.25359341       3.92574598       1.74306348
Ag       2.42777979      -0.63486536      -0.07653584
Ag       3.14595976       2.01992102       0.79910434
Ag       0.79807675       2.37947923      -3.48200796
Ag      -0.74614169      -1.96932226      -2.51714471
Ag      -2.32056413       0.26410417      -2.95987888
Ag       0.65452375       0.99153081       1.31116665
Ag      -1.84978147       0.64189458       2.41333681
Ag      -3.78751309      -0.96374433       1.41004437
Ag       2.87124540       1.30941105      -1.95171317
Ag       0.12850356       0.45630799      -1.45704577
Ag       2.26712142       2.16504263       3.53678708
Ag      -1.23937710       2.98397550       0.85471033
Ag      -1.48051230       2.73676126      -1.95996588
Ag      -1.49246342      -4.09039730      -1.02384491
Ag       1.95953896      -1.26747923      -2.73944663
Ag       1.03347395       3.01331124      -0.79301895
Ag      -3.23047617      -1.82567322      -1.20766049
Ag      -3.01960488      -3.50904226       1.13397368
Ag      -0.41359877       2.66428837       3.52343191
