30
Properties=species:S:1:pos:R:3 calc_mode=gop-qsc opt_step=2957 total_energy=-77.02047299126531 pbc="F F F"
Ag       0.12402231       2.60009612       1.23263624
Ag       3.77939983       0.76234651      -0.82615057
Ag       0.41820093       3.79182427      -1.32326249
Ag       2.49514275      -1.38580405      -1.98817947
Ag       0.78295762      -3.37678902      -2.89892405
Ag      -1.20949213      -3.79285302      -0.00341486
Ag      -1.71665738      -1.67339069       1.82432035
Ag      -1.79141352      -2.61282997      -2.60932289
Ag       3.04065689       1.15517046       1.83297394
Ag       1.07356293       1.43443297       3.77293173
Ag      -3.84973026       0.11431158       1.70947534
Ag      -0.17573669       1.99256526      -3.32027630
Ag      -0.18896867      -1.09343096       4.08588072
Ag      -0.02679044      -1.52902407      -0.75393991
Ag       0.62383497      -0.13737044       1.57773817
Ag       0.26736216      -0.71325454      -3.42443433
Ag      -4.17021741       1.09479268      -0.81393715
Ag       2.66397332       3.14621794       0.02496861
Ag       0.76250557      -2.85854313       2.04779872
Ag       2.88518904      -1.44064519       0.72070561
Ag       2.51514171       2.45809215      -2.68776603
Ag       1.00472820       1.00523861      -0.96836025
Ag      -1.57170440       0.61883344       0.12151695
Ag      -2.88546275       2.74954325       1.17616414
Ag       1.67852502      -3.69879359      -0.37754552
Ag       2.47813018      -1.03803436       3.45420973
Ag      -2.11178480       2.80073774      -1.49654934
Ag      -3.17183902      -1.57087539      -0.49927086
Ag      -2.17069202       0.15666677      -2.52559684
Ag      -1.55284397       1.04076869       2.93561061
