30
Properties=species:S:1:pos:R:3 calc_mode=gop-qsc opt_step=366 total_energy=-76.76243212837451 pbc="F F F"
Ag      -0.77496483       1.92887621       4.17642976
Ag      -0.61730179      -2.72921548       1.96295763
Ag       1.70277980       0.76442948       4.60569516
Ag      -1.29146933      -0.69485110       0.21526677
Ag      -1.67803688      -1.26362689       4.12563718
Ag       0.80665772      -2.84988567      -3.52593361
Ag      -2.41524540      -3.46975922      -0.05186878
Ag       2.74325340      -2.36286163      -1.71035516
Ag      -0.74639897       2.54079304      -1.38756389
Ag      -2.08929930       0.41106200      -2.49914216
Ag       0.97861784       1.15580004       0.24183197
Ag       1.08397527       3.96372363       0.12448981
Ag      -1.76923692      -2.30671882      -2.45162554
Ag       3.41092949       2.57347759       0.54427518
Ag      -2.62480281       0.72522636       2.49597502
Ag       1.46581780       2.64756510       2.60634217
Ag       0.13562090      -0.03724468       2.53060550
Ag      -3.03314294       1.46741514      -0.12916365
Ag       2.96651336       0.35742028       2.14171364
Ag       2.52352619      -0.15988904      -3.50956282
Ag      -1.03480727       2.66392048       1.43082534
Ag       0.21300136      -3.29813380      -0.81750479
Ag       0.25138221       1.51811590      -3.74959684
Ag      -3.29046280      -1.82618639       1.90920061
Ag      -3.78196916      -1.15032341      -0.81617991
Ag       3.34654946       0.12446219      -0.77563720
Ag       0.47053771      -0.60660346      -1.86135870
Ag       2.13588453       2.31916823      -1.96561717
Ag      -0.69025616      -0.86480745      -4.55674310
Ag       1.60234752      -1.54134863       0.69660759
