30
Properties=species:S:1:pos:R:3 calc_mode=gop-qsc opt_step=52 total_energy=-76.84121709385572 pbc="F F F"
Ag       0.35318768       0.81235913      -1.38919113
Ag       2.17090590      -1.34342279      -1.42923831
Ag      -0.63791742       1.06515828       2.86491398
Ag       1.09146100      -0.38683778       1.03913684
Ag      -0.83428580      -2.23313205       1.83165367
Ag      -0.64531900      -1.25396464       4.35483757
Ag       3.57268305      -1.93767271       0.86851475
Ag      -2.93404921      -0.57924865       2.77597460
Ag      -0.65609986      -1.85966185      -1.06343304
Ag      -3.12241735      -0.59232929      -1.81205050
Ag       1.85306229       2.10868006       1.95833904
Ag       1.54088266       0.40174764       4.31631820
Ag       0.88886249      -0.51774291      -3.77572091
Ag      -1.63075821       0.13793514       0.46961382
Ag      -0.66628558       3.42899684      -2.02998683
Ag       2.97628618       1.01261065      -2.65448044
Ag       1.24859341      -3.26556626       0.36570995
Ag       0.92084766       2.26299063      -3.85845027
Ag      -1.52598979       1.02758699      -3.36912641
Ag       1.74178362      -2.10110283       3.04336130
Ag      -3.16900003      -2.21599976       0.41444760
Ag       0.79453038      -3.18615119      -2.93628810
Ag      -1.51339665      -1.79727401      -3.69166730
Ag       3.39010540       0.77944551       0.02213547
Ag      -0.49522073       2.68827936       0.59604503
Ag      -2.97214215       2.16291269       1.82822302
Ag       3.61883480       0.06348189       2.66908228
Ag      -2.83845613       2.08475158      -1.02195910
Ag       1.90494091       2.97908523      -0.88696257
Ag      -4.42562954       0.25408509       0.50024778
