30
Properties=species:S:1:pos:R:3 calc_mode=gop-qsc opt_step=194 total_energy=-77.10342332683966 pbc="F F F"
Ag       1.30749576      -0.43279429       4.16274563
Ag       1.22524764      -1.04545571      -4.41671331
Ag      -0.33702467       1.76157252       4.03516212
Ag       2.17205997      -1.75957167       1.86880461
Ag       3.09775674       0.83360820       2.43283263
Ag       3.22050496      -1.13656410      -2.53898240
Ag      -0.26747875       3.22105636      -2.81291232
Ag      -0.47853365       1.44618989      -0.73097316
Ag      -0.52237793      -1.96747524       2.70226099
Ag      -2.19143582       3.68085234      -0.86983536
Ag      -1.38698046      -1.00434272       0.20603864
Ag      -1.30183641       2.75727718       1.61646820
Ag       3.92205426      -0.44204545       0.09033259
Ag       2.99894682      -3.01106352      -0.49504476
Ag      -2.50581510       1.53837405      -2.62501646
Ag      -1.70834272      -3.11609381      -1.57055940
Ag      -0.78402570      -0.66055492      -2.58351250
Ag      -4.00300239      -1.24663458       1.05607107
Ag       2.26783840       1.80070589      -0.08907434
Ag       1.26251632      -0.79582288      -0.62780730
Ag       0.44699864       0.49669811       1.70663051
Ag       0.95965592      -2.90347174      -2.40372442
Ag       0.50476065       3.97164378      -0.21006355
Ag      -2.33247781      -3.42639804       1.13339435
Ag      -2.21419687       0.26234844       2.59285783
Ag       1.50123467       1.08604338      -2.69941712
Ag       1.40262367       3.04704568       2.27405877
Ag      -3.43690419      -0.91893025      -1.65946058
Ag      -3.15617242       1.23767752       0.11222545
Ag       0.33691045      -3.27387441       0.34321358
