30
Properties=species:S:1:pos:R:3 calc_mode=gop-qsc opt_step=3393 total_energy=-76.93482863826699 pbc="F F F"
Ag      -3.41766788       0.91321435      -1.54172845
Ag       1.52793247      -0.44265059      -3.65017285
Ag      -3.00318021      -1.70865862      -2.49409472
Ag      -2.57090910       3.13030073       0.02980252
Ag      -1.89043784      -0.85451358      -0.04125244
Ag       2.85737279       0.22420315       1.07905976
Ag       2.11374501      -2.34568572       1.87231225
Ag       3.42211081      -2.04034404      -0.60677657
Ag       0.22902332      -0.29664766       1.77402105
Ag      -0.62343234      -2.20574391      -4.02328836
Ag       1.03100784       2.07872687      -2.60934633
Ag       2.24062753      -0.32523675       3.76999869
Ag       1.32566761       2.05557544       2.64941729
Ag      -1.55698434       1.78462869       2.32400521
Ag      -0.32474371       0.50564996       4.40968010
Ag      -0.95884653       0.09087484      -2.58582841
Ag      -0.18631513       3.94215935       1.38307294
Ag       0.12746855      -2.15594678       3.87331201
Ag      -0.39823667       1.53287490      -0.25813984
Ag      -2.22250083      -0.94874947       2.79047074
Ag      -1.71065721       2.74805510      -2.62219533
Ag      -0.85920908      -3.08463486      -1.44959635
Ag       0.05718856       4.25992597      -1.25575147
Ag      -3.78366038       0.77553175       1.15983340
Ag       2.06042627       2.69198685      -0.01227288
Ag      -0.62797205      -2.91355724       1.32890236
Ag       1.43703425      -3.98430398      -0.18545189
Ag       0.89969172      -1.01630922      -0.80561850
Ag       3.10065547       0.55537062      -1.61981662
Ag       1.70480112      -2.96609614      -2.68255730
