30
Properties=species:S:1:pos:R:3 calc_mode=gop-qsc opt_step=1056 total_energy=-76.91215286886533 pbc="F F F"
Ag       2.24252555      -3.12539048       0.03781478
Ag       4.13897868      -1.03466721       0.73860298
Ag       0.48587400      -4.15357159       2.02288664
Ag       1.64245998      -0.39555002       0.00960275
Ag      -1.28227705       1.91282216      -3.17240878
Ag      -1.07175922      -0.76682964      -3.59674934
Ag      -1.20082308       0.23830485      -0.82953038
Ag      -2.59522101      -3.27926582       1.19043017
Ag      -0.84663694      -2.12342738       3.33719394
Ag       3.33047585      -1.11239674      -1.95693469
Ag      -0.36771369      -1.93660540       0.66861541
Ag      -1.66420532       2.37125106       1.78839140
Ag       1.10047305       0.70083924      -2.47914338
Ag      -0.02833106       4.66561810       0.66969163
Ag      -2.08131764      -2.36469238      -1.53716556
Ag       0.18956861       0.35294484       2.41573881
Ag      -0.34624907      -4.34354861      -0.59705729
Ag       2.84362772       1.24949836       1.85201631
Ag       0.57726784       2.03079568       0.21865231
Ag      -3.62856527       1.39641421       0.02144814
Ag       3.24652873       1.60260799      -0.94386760
Ag      -3.41216702       0.10104870      -2.43055054
Ag       1.94039054      -1.76778901       2.44264897
Ag       2.59940776       3.81575707       0.57713681
Ag      -2.40595507      -0.39652900       1.76662671
Ag      -4.14632448      -1.31472243      -0.12886108
Ag       0.68273197      -2.09929735      -1.99455490
Ag      -1.74568234       3.19465944      -0.86092994
Ag       0.91768674       3.07539568       2.74495351
Ag       0.88523125       3.50632566      -1.97469780
