30
Properties=species:S:1:pos:R:3 calc_mode=gop-qsc opt_step=617 total_energy=-76.39051167265083 pbc="F F F"
Ag       2.89718328       1.13930945       2.34309674
Ag       3.48702536       2.70542392      -0.84506852
Ag      -5.20953049       1.69693461       1.41420542
Ag       0.11636308       1.97240309       2.86543608
Ag      -1.01852581       2.81652216       0.28471571
Ag       1.61745516       3.28179875       1.00819350
Ag       0.28978989      -2.04374878       0.05283754
Ag       0.91500868      -3.69780491      -2.13239361
Ag      -1.53119290      -2.29343714       2.22001987
Ag       0.81456968      -0.71316192       2.91744537
Ag      -1.06058146       0.19662366       1.12333469
Ag      -1.38479866      -2.35182834      -2.69534209
Ag       1.52258936       0.60839296       0.09807753
Ag      -2.56162936      -1.59066558      -0.36922278
Ag       0.98169276      -3.41529651       2.40652780
Ag       2.37782845      -4.00663303       0.14523619
Ag      -1.69292006       0.00227293       3.85293252
Ag      -3.67258028      -0.48951423       1.94609775
Ag      -0.52765538       0.11140813      -1.60782262
Ag       0.84562469       2.74152066      -1.70570151
Ag      -1.84369811       2.44605185      -2.39797873
Ag       2.54215330       0.76461758      -2.55313578
Ag       2.68487388      -1.69385593      -1.35653851
Ag      -3.20542311       1.15319570      -0.34952223
Ag       0.99223572      -1.30002037      -3.53345869
Ag       2.88910330      -1.59884408       1.41355340
Ag       4.26104536       0.23448027      -0.09615465
Ag       0.12560937       1.28939944      -3.98757456
Ag      -2.69554373       2.11870255       2.36719805
Ag      -2.95607196      -0.08424690      -2.82899386
