30
Properties=species:S:1:pos:R:3 calc_mode=gop-qsc opt_step=1029 total_energy=-76.88141890090837 pbc="F F F"
Ag       1.49536615       0.65403592       3.58435937
Ag      -0.99047194      -0.63155637       3.39170479
Ag       2.71829603       2.56004981       1.94254294
Ag      -3.34775278      -2.81740834      -0.29734845
Ag       1.36639460      -1.97688186       2.60463200
Ag       2.95410737       1.82100663      -0.81517670
Ag       3.38282727      -2.70436590       0.59398228
Ag       2.91738707      -0.05180748       1.24983463
Ag       0.81569713       3.35553430       0.15869392
Ag      -1.22593755       3.37764691      -1.73239411
Ag       0.30434147      -1.30582815      -2.80400275
Ag      -1.15795475      -2.61597334       1.46897548
Ag       0.98909559      -1.47767670      -0.06211408
Ag      -3.16901440      -0.61493108       1.54246011
Ag       1.99128821      -3.37559344      -1.77997352
Ag      -4.13627736      -0.31989466      -1.22739755
Ag       0.00704883       0.81840797       1.27064948
Ag      -2.50750644      -1.94547083      -2.88285860
Ag      -2.22987777       1.75338682       2.70083480
Ag       1.41941008       3.34613279      -2.57761943
Ag      -2.03878717       0.83375017      -2.78520383
Ag      -1.51393907      -0.80262465      -0.62089273
Ag      -0.76180395      -3.43341680      -1.24362627
Ag       1.05098507      -4.14797586       0.76825723
Ag       3.18587474      -0.85698470      -1.54029984
Ag       0.35081968       1.08135427      -1.40748313
Ag      -1.67420907       3.96485660       1.07367078
Ag      -2.52654923       1.64683421      -0.06131696
Ag       2.13736204       0.81277750      -3.43444736
Ag       0.19378016       3.05261626       2.92155748
