30
Properties=species:S:1:pos:R:3 calc_mode=gop-qsc opt_step=3737 total_energy=-77.06673450479477 pbc="F F F"
Ag       0.45784832      -1.20784768       3.61691989
Ag       1.28731434      -0.83506670      -4.26780863
Ag      -3.35455539      -0.46738454       3.01594018
Ag      -1.01721106       2.08254345      -0.38497142
Ag       2.84902978      -0.64121062       2.24416648
Ag      -0.75895416      -0.66749950      -1.04003330
Ag      -1.30385713       0.83517664       4.29082346
Ag      -3.15988941      -1.25467390       0.34370833
Ag       0.75388078      -2.01213018       0.95032260
Ag       0.84941050       1.18181027      -2.44148053
Ag       1.34347321       0.67751321       0.29573726
Ag       1.92659919      -1.30859789      -1.62933592
Ag       3.97870827       0.03298196      -0.27299018
Ag      -1.49182172       2.52984356      -3.06903174
Ag      -3.36698806       1.46170805       1.01259414
Ag      -2.88309184      -2.00587600      -2.32725507
Ag      -3.10325587       0.71521986      -1.68738609
Ag      -1.35922765      -3.31702963      -0.37233441
Ag      -1.63608680      -2.53974365       2.31765427
Ag      -1.32196175      -0.15971055      -3.71702153
Ag      -1.01768083       0.09345655       1.63640061
Ag       1.09403269       1.45080422       2.99756255
Ag      -1.27132369       2.78977694       2.31319253
Ag       3.38437705      -2.60389469       0.34265115
Ag       2.90934504       2.50530278      -1.07934555
Ag       0.58903970       3.85877065      -1.76500946
Ag       1.30112138      -3.92728800      -0.96332054
Ag       3.45097484       2.01689483       1.60724927
Ag      -0.23574936      -2.67125128      -2.89793972
Ag       1.10649964       3.38740183       0.93034137
