30
Properties=species:S:1:pos:R:3 calc_mode=gop-qsc opt_step=2768 total_energy=-76.69566854879005 pbc="F F F"
Ag      -1.75612905      -0.14632284       3.98326016
Ag       0.80533157      -0.95618655      -3.83710142
Ag       3.66459080      -0.27629316      -3.56760585
Ag      -2.20351157      -2.12395751      -0.13158499
Ag       2.21651673      -1.21559144      -1.50265340
Ag      -1.38739385       0.22676027       1.22619479
Ag      -3.51561172       1.47159649       2.49842100
Ag       0.90543472       0.01345763       2.80795535
Ag       2.34046444      -3.50868600       0.04409217
Ag       2.54656619       3.29341970      -0.75251469
Ag      -0.20757997       2.89776702      -1.50835879
Ag      -0.85850527       2.25495637       3.03782042
Ag      -3.77045965       0.29465933      -0.10905451
Ag      -0.65251769      -0.05670598      -1.56459978
Ag      -3.59956342      -1.27323401       2.17290605
Ag      -0.72351599       1.36397009      -3.91473886
Ag      -0.30109581      -4.19249085       0.60457331
Ag       1.61725119      -2.81873686       2.65078853
Ag       0.46094425      -1.59564331       0.52353536
Ag      -0.08358097      -2.82029936      -1.88749418
Ag      -3.00477282      -0.91319666      -2.53570084
Ag       3.05896439      -0.86296909       1.19773492
Ag      -2.70493429       1.83286016      -2.08487999
Ag       1.74859736       1.37115347      -2.63571176
Ag      -2.09091492       2.76248559       0.49649300
Ag      -1.13069615      -2.41521089       2.58865019
Ag       3.00995751       1.95945926       1.77374478
Ag       1.15469512       1.02607840       0.11744031
Ag       0.59643187       3.51967144       1.14013535
Ag       3.86503698       0.88722930      -0.83174664
