30
Properties=species:S:1:pos:R:3 calc_mode=gop-qsc opt_step=270 total_energy=-77.02804891193566 pbc="F F F"
Ag      -1.18503986       0.70493766       4.04449333
Ag      -1.88581131       1.33378462      -3.58955323
Ag       0.59742905      -4.30020364      -0.64523153
Ag      -2.62863649       2.60656078       2.65575561
Ag       1.05956480      -3.49979039       2.08331943
Ag       1.33354770       0.94220418       0.01396837
Ag      -3.44617112      -0.01219951       2.58053046
Ag       0.22388104       2.64991568       2.64254394
Ag      -1.15151232       0.74875448       1.19797959
Ag       1.07865323      -0.19462709       2.65661834
Ag      -2.72371154      -1.30506850       0.25077898
Ag       2.77327589      -2.74747206      -0.19680603
Ag      -1.07635658      -1.29702863      -4.00513135
Ag      -0.82296735      -0.10383902      -1.51131641
Ag       1.07054724      -2.06675281      -2.33929808
Ag      -3.33849086      -0.73813548      -2.41983710
Ag      -1.55030411      -3.77188806       0.93701924
Ag       2.81855283       1.96573590       2.30069080
Ag      -2.85111375       1.59776764      -0.83601112
Ag      -0.19743361       2.57423494      -1.79355823
Ag       2.49642063       2.45105370      -2.17294086
Ag       3.09712861      -0.30266327      -1.65573326
Ag       0.98039665       0.54539799      -3.44891041
Ag       0.26902711      -1.65385717       0.35353383
Ag      -1.23892635      -1.73062502       2.71819236
Ag       4.07191451       1.83889533      -0.08858660
Ag      -1.24524435       3.52702703       0.49621597
Ag       3.40265805      -0.52056734       1.19421908
Ag       1.60548491       3.60335124       0.29424920
Ag      -1.53676266      -2.84490321      -1.71719432
