30
Properties=species:S:1:pos:R:3 calc_mode=gop-qsc opt_step=2411 total_energy=-76.83783803418216 pbc="F F F"
Ag      -0.84603806      -2.13939302      -3.94224309
Ag      -1.09329441       0.48901880      -3.10285089
Ag       1.34758702      -0.51299265      -3.96682184
Ag      -1.18446117       2.71322607      -1.39549639
Ag       0.37744681      -1.43026246      -1.47880203
Ag      -0.37424539      -0.58856978       4.06272569
Ag       1.13155522       4.08316495      -0.90183811
Ag       1.55898304      -2.48814005       3.04235802
Ag      -4.24462478      -0.39287211       0.09405228
Ag      -0.56631320       1.55467349       2.15046495
Ag       1.91152047       2.95659713       1.53811260
Ag       1.89090110       0.40691489       2.83424909
Ag      -3.54640438       1.32070920      -1.95036571
Ag      -1.60229259       0.19159479      -0.37902055
Ag      -3.00008843       2.17117824       0.79554969
Ag       1.22715805       2.00702736      -2.80924518
Ag      -2.55394013      -0.38364475       2.29318520
Ag      -1.16968239      -3.72290213      -1.74942697
Ag       4.01912634      -1.32343246       2.65203620
Ag       3.35318586       2.58430491      -1.09675766
Ag       2.93598246      -0.08818425      -1.78205710
Ag       0.34474019      -3.60340393       0.58591177
Ag      -2.87261522      -1.48205947      -2.16931025
Ag       1.00616344       1.11668786      -0.21102622
Ag      -0.78800429       3.98391313       1.02023110
Ag      -2.26356789      -2.42324374       0.39160898
Ag       0.03442538      -1.01641745       1.35162356
Ag      -1.21284655      -2.94384150       2.88982564
Ag       2.49146507      -1.76165766       0.41116309
Ag       3.68817846       0.72200662       0.82216413
