30
Properties=species:S:1:pos:R:3 calc_mode=gop-qsc opt_step=229 total_energy=-77.00574910167846 pbc="F F F"
Ag      -1.59357988       4.44724379       0.68138241
Ag      -0.23892182       2.26592414       1.61251591
Ag       1.85357120      -2.73402184      -2.95319036
Ag       1.01042965      -2.97129032       2.01080512
Ag       0.44130753      -1.22802738       4.12619337
Ag       2.93269761      -0.27077606      -2.20750168
Ag       0.34142304       3.26931249      -0.92762464
Ag      -1.22886194       0.88959308      -0.63727615
Ag      -1.77739064      -2.29911815       2.95902358
Ag      -2.98052975       2.09428026       1.15243952
Ag       0.32978133      -1.35162405      -1.19384897
Ag      -1.76296397       0.57140776       3.31623199
Ag       4.17185304       0.63047961       0.23464340
Ag       2.75238062      -1.83059416       0.06305862
Ag      -2.44270727       3.15301008      -1.55438079
Ag      -0.80273265      -3.57232520      -2.45153375
Ag       0.63836293       1.17391987      -2.74432498
Ag      -2.41880127      -1.40444729      -1.77639313
Ag       2.46760518      -0.32660220       2.35192531
Ag       1.49893222       0.83227057      -0.07458193
Ag      -0.17915829      -0.60492407       1.47633880
Ag      -0.39019951      -1.18993291      -3.82761525
Ag       2.59187539       2.44896562       1.78209943
Ag      -1.31829740      -2.98678688       0.31339036
Ag      -2.92366404      -0.70953335       0.95974295
Ag       2.98727906       2.48260867      -1.57525859
Ag       0.95935932       1.42055243       3.86886173
Ag      -2.10580012       0.95127365      -3.26505348
Ag      -3.96439802       0.84722492      -1.15517952
Ag       1.15114844      -3.99806311      -0.56488925
