30
Properties=species:S:1:pos:R:3 calc_mode=gop-qsc opt_step=37 total_energy=-76.96120243147865 pbc="F F F"
Ag       0.49339660      -1.35890773       0.66199403
Ag      -1.04619994       0.90507973       0.33680438
Ag      -1.69987120       2.53173493       2.55047517
Ag      -4.63890983      -0.33048251       0.14416839
Ag      -2.20127752      -1.61487987      -0.09682605
Ag      -2.87902019       0.02171186       2.23062519
Ag      -2.86170389       0.53639463      -1.80206543
Ag      -1.31488009      -2.28593922       2.58129358
Ag      -3.99029621      -2.49464102       1.79372435
Ag       1.39617472      -2.05767471       3.25350734
Ag      -0.36437345      -0.71461877      -2.04704114
Ag       0.65393907      -4.00312557       1.40790642
Ag      -0.65137238       2.18274647      -2.07763432
Ag       1.52324648       0.85180386      -0.73354648
Ag       2.09281680       0.03714745      -3.33536435
Ag      -0.35083800       0.76037976      -4.37817147
Ag      -0.27518568      -3.37996064      -1.13776600
Ag      -0.13463225       0.25097915       2.93109879
Ag      -3.46176151       2.17705756       0.39968883
Ag       1.54156909       3.59113557      -0.97969165
Ag       0.94467163       2.47254143       1.55789486
Ag       4.01111173      -0.26643613      -0.44556457
Ag       3.67052196       1.97892446      -2.12168809
Ag       2.10996942      -1.99968496      -1.50665403
Ag      -2.05663147      -4.23968052       0.79406439
Ag       3.54628503       2.34386816       0.58150303
Ag      -1.09458968       3.73125613       0.13844740
Ag       3.02529088      -2.47615474       1.04724676
Ag       2.50003347       0.14262953       1.89734161
Ag       1.51251641       2.70679570      -3.64577094
