30
Properties=species:S:1:pos:R:3 calc_mode=gop-qsc opt_step=4685 total_energy=-76.95421328466341 pbc="F F F"
Ag      -0.80104876       0.68833709       3.37760248
Ag       0.82003103      -0.73159755      -3.36256341
Ag       2.84168763      -2.42529191       2.85860504
Ag       1.08572876       0.17869357      -0.78194555
Ag      -3.07583328      -1.71719051      -0.32640158
Ag      -1.04185758       2.01396853      -0.68333190
Ag      -2.27158547       2.35296488       1.75032965
Ag       0.77382816      -4.59679505      -0.49891634
Ag      -3.56804621       0.98998662      -0.35257062
Ag      -0.53239741      -2.37832440      -1.45492427
Ag      -2.79636841       2.34070845      -2.82835670
Ag      -1.33624306      -3.31320461       1.10703420
Ag       3.24566854      -3.85840662       0.51852933
Ag       2.75615646       1.29235159      -2.54368684
Ag       0.07300031       1.91105221      -3.19059634
Ag      -0.73077874       4.51116861       0.52645203
Ag       1.10900681      -2.14471871       0.72699523
Ag      -3.30551695      -0.24054019       2.18079759
Ag       0.58103350       2.31289189       1.49594090
Ag      -0.98698957       4.33807705      -2.21929084
Ag       1.01343334      -4.42292987       2.25851939
Ag      -0.04581734      -1.96045995       3.19940619
Ag       3.09922231       1.67473307       0.33776737
Ag      -1.72976192      -0.11388613      -2.25638291
Ag       1.75855233       0.02820676       2.26530073
Ag       1.36683478       3.27333152      -1.08552592
Ag      -3.18861448       3.78120053      -0.50337054
Ag       3.58613193      -1.04193920       0.36856282
Ag       2.29778456      -2.39417913      -1.72531542
Ag      -0.99724127      -0.34820852       0.84133624
