30
Properties=species:S:1:pos:R:3 calc_mode=gop-qsc opt_step=4989 total_energy=-76.74481942684918 pbc="F F F"
Ag      -0.50908875      -2.81397725       2.66494975
Ag       5.41712584       0.48807157       0.08341617
Ag       1.85161429      -1.35545905       2.66243081
Ag       3.39223389       0.28669204      -1.72347133
Ag       3.35103884       2.32699260       0.24906966
Ag      -1.83011965       4.02591915      -0.23605612
Ag      -3.87171214       2.60944769       0.84999852
Ag       0.64275383       2.88620680       0.12610026
Ag      -0.56141031      -2.09454851      -3.07658494
Ag      -3.44883745       2.36566553      -1.82017291
Ag       1.39701116       1.83085453       2.58457380
Ag       0.24174800      -4.22477323      -1.61885281
Ag      -3.21273774       0.57743371       2.44944074
Ag      -0.57579976      -0.10406326       2.20586389
Ag      -1.46324257       1.11487442      -0.12612121
Ag       3.64460203      -1.60767609       0.46129952
Ag       3.79911560       0.51630880       2.27005493
Ag       1.92649921      -2.05426888      -1.68674151
Ag      -0.76246900       2.68190726      -2.39063806
Ag       0.55830754       0.30523507      -2.20602803
Ag      -1.46484414      -4.11263754       0.45098616
Ag       1.55095293       0.20155869       0.36376633
Ag      -0.48316190      -1.56630438      -0.28418209
Ag      -2.73891939      -1.84413785       1.33167051
Ag       2.04640337       2.64260778      -2.21141090
Ag      -2.20430360       0.03715049      -2.55737635
Ag      -2.81828719      -2.43739321      -1.40579477
Ag      -1.31373209       2.63928528       2.16966265
Ag       1.39776495      -3.32950546       0.74205138
Ag      -3.95850583       0.00853333      -0.32190406
