30
Properties=species:S:1:pos:R:3 calc_mode=gop-qsc opt_step=396 total_energy=-76.71644426732126 pbc="F F F"
Ag      -0.29564601       0.19015447       1.88318521
Ag      -0.12575004       0.01024002      -4.89184186
Ag       1.47646665       3.53750498      -1.15498479
Ag      -2.18935186       0.86319878      -3.22511237
Ag       0.03962313      -2.48771426       2.67849809
Ag       1.42660457       0.91130868      -0.08714387
Ag      -2.57115974      -0.04257428       3.29177258
Ag       0.17558066       3.02513295       1.22457521
Ag      -2.39812582       2.07220088       1.39557286
Ag      -0.72081154       2.09393717       3.74752432
Ag      -2.13044418      -1.83025144       1.10343602
Ag       1.07669271      -3.52936441      -2.04008962
Ag      -0.64818740      -1.39149872      -2.63675991
Ag      -1.33271693       0.41841164      -0.60304926
Ag       2.11691539      -0.91258731      -2.15575265
Ag      -3.27427449      -1.23277868      -1.48749112
Ag       0.64797479      -4.28455380       0.61897824
Ag       1.96238292       1.62016892       2.76407104
Ag      -4.12664759      -0.02293473       0.93943246
Ag      -3.73083666       1.70803190      -1.11615121
Ag      -1.28525727       3.06796680      -1.19335258
Ag       2.93281791      -2.75396322      -0.11624493
Ag       3.25771843       1.64250777      -2.07410047
Ag       0.41029262      -1.67439647      -0.05507392
Ag       0.66948199      -0.31172066       4.34185719
Ag       3.95661183      -0.15216257      -0.07644163
Ag       0.48042797       1.36881410      -2.63111521
Ag       2.27434581      -1.00751038       1.97979291
Ag       3.44396024       2.57802953       0.59063199
Ag      -1.51868809      -3.47359769      -1.01462272
