30
Properties=species:S:1:pos:R:3 calc_mode=gop-qsc opt_step=3722 total_energy=-76.66815962863211 pbc="F F F"
Ag      -1.21621627      -2.16956428      -4.11611046
Ag       1.51135926       0.91629615       4.75643001
Ag      -0.67387542       0.49337089      -4.02164927
Ag      -2.44640246       3.36454924       0.03828487
Ag      -1.36727779       1.41989047      -1.52825965
Ag       2.30827699      -2.28663230       1.55752267
Ag       0.41706509      -3.39614722      -0.07048498
Ag       2.50272392      -2.04808383      -1.30207840
Ag      -1.36817921      -1.41768728       0.60166528
Ag       3.75258642       0.21560418      -2.26566151
Ag       3.08860765       1.97492763      -0.04195078
Ag       0.28806834      -0.65836448       2.82873315
Ag      -0.98876197       1.62964782       3.94536785
Ag      -3.45608650       0.60304030       0.18761688
Ag      -2.63340156      -0.35368962       2.78684007
Ag       0.47061740       3.11565324      -0.19958940
Ag      -3.24837381       2.32617500       2.45438443
Ag      -3.90286180      -2.10242471      -0.10305064
Ag      -0.99176005       1.25312617       1.20686759
Ag      -2.84232995      -0.76289243      -2.28437395
Ag      -0.86745818       3.84324285       2.23732995
Ag       1.68635583      -1.03518738      -3.81568044
Ag       1.36585521       2.18694887       2.28511034
Ag      -0.11566087      -1.10238527      -1.78588679
Ag       3.05819372       0.10856012       2.66264779
Ag      -1.86679982      -3.27472494      -1.61335593
Ag       0.73893704      -3.55702077      -2.82294069
Ag       1.31152961      -0.02895561       0.31297143
Ag       4.18256134      -0.58062621       0.30390584
Ag       1.30270784       1.32335342      -2.19460525
