30
Properties=species:S:1:pos:R:3 calc_mode=gop-qsc opt_step=3833 total_energy=-76.90062594246923 pbc="F F F"
Ag      -0.27894936      -1.07935705      -4.40641139
Ag       0.39874919       2.92118819       2.11786885
Ag       2.15408365      -0.13824557      -3.60153540
Ag      -2.00892480       2.45885324      -1.79992464
Ag      -2.41713956       0.37581867      -3.54974484
Ag       1.88334730      -2.97706619       0.26408373
Ag      -0.18556590      -3.97096182       1.79894459
Ag       0.97566256      -2.21807631      -2.20978350
Ag      -1.68187166      -1.99374996       2.82666649
Ag       3.31183496      -1.05383689      -1.22786440
Ag       2.85289988       1.70321027      -1.72535291
Ag       1.08490323      -1.60074645       2.56913434
Ag      -0.53183838       0.51130642       3.14511378
Ag      -3.76834860       2.28675003       0.35478022
Ag      -2.35059301       2.54626952       2.72265252
Ag       0.58516337       2.93244722      -0.79768232
Ag      -1.61084480       4.02680549       0.49799639
Ag      -3.21797018      -0.00105140       1.86428767
Ag      -1.12500124       1.23866196       0.55035363
Ag      -3.04539265      -0.09118266      -0.89908656
Ag       2.31837279       0.96827051       2.89737419
Ag      -1.79919057      -2.04912908      -2.29683288
Ag       2.81265427       2.90678351       0.85773271
Ag      -0.47748793      -1.45311189       0.22771418
Ag       3.59365002      -1.24009910       1.59786657
Ag      -2.87375286      -2.64469778       0.36095149
Ag      -0.62184789      -4.04692903      -0.85242287
Ag       1.57150823       0.39463189       0.36971601
Ag       4.53849841       0.91442909       0.30324659
Ag      -0.08660848       0.37281517      -1.95984225
