30
Properties=species:S:1:pos:R:3 calc_mode=gop-qsc opt_step=3346 total_energy=-76.98984920538096 pbc="F F F"
Ag       2.27030643       0.73106182      -2.65453689
Ag      -3.34160671       0.45667416      -2.87420462
Ag      -2.32332509       0.82324544       1.74046043
Ag       2.93410221       0.39761789       2.11572627
Ag       1.18261405      -1.74928818       2.16957610
Ag      -2.14442352      -1.90513731      -2.23727636
Ag       1.73087928       2.62706349       3.11438864
Ag      -1.71236338      -1.78294173       2.58350570
Ag      -0.66446563      -1.67541570       0.10417205
Ag       1.74536283      -0.39220072      -0.26392473
Ag       3.37348115      -1.81679722      -1.98576239
Ag       0.60689271      -1.66855914      -2.44146660
Ag      -0.47031502       0.70963353      -3.47115587
Ag      -2.06454818       2.86470897      -2.48671736
Ag       0.77381758       4.14791095       1.00750997
Ag      -1.39191900       0.67144581      -0.94111476
Ag      -0.99542806       2.97964872       2.95506084
Ag      -3.90139803       1.82688331      -0.53232193
Ag      -0.07042169       0.34594087       3.55139971
Ag      -0.68390415      -4.06894813      -1.33468050
Ag       0.30919293       1.39687925       1.10091141
Ag      -1.69032768       3.22638864       0.25985712
Ag       3.80363898      -1.90689595       0.85857340
Ag      -0.31582563      -4.03026200       1.51563154
Ag       4.36987724       0.36089556      -0.62692589
Ag       2.74112251       2.38213149       0.19621806
Ag      -2.75838283      -3.44035005       0.39103837
Ag       1.68655513      -3.22830226      -0.26125859
Ag      -3.53547443      -0.87361157      -0.08339842
Ag       0.53628602       2.59058007      -1.46928474
