30
Properties=species:S:1:pos:R:3 calc_mode=gop-qsc opt_step=370 total_energy=-76.51601567969774 pbc="F F F"
Ag       2.41041293       1.80001734       4.11905529
Ag       0.15057551       0.82310118       5.43871764
Ag       4.45446459      -1.26883673       0.20169730
Ag      -1.73413431      -0.45289605      -0.33340880
Ag      -0.82828361      -1.92874830       1.78343904
Ag       0.75829356      -3.05727893      -3.36059619
Ag      -2.67710636      -3.06373028       0.08755164
Ag       2.78019527      -2.42666721      -1.63433937
Ag      -1.16227809       2.14298355      -1.25233354
Ag      -2.35630095       0.34170124      -2.93829269
Ag       0.49546018       0.97296841       0.70929973
Ag      -0.43405671       3.77812882       0.83045820
Ag      -1.79929274      -2.33377125      -2.50276173
Ag       2.09290400       3.17483829       1.72096019
Ag      -1.72777593       0.00648059       3.52295514
Ag      -0.12525948       2.28323955       3.15184993
Ag       1.02283232      -0.36144348       3.14458585
Ag      -3.83951298       1.33703500      -0.74946403
Ag       3.17952805       0.67588132       1.66559648
Ag       2.36994801      -0.68588860      -3.74178178
Ag      -2.19780884       1.69517667       1.40253898
Ag       0.03821695      -3.25305085      -0.61258418
Ag       0.71099889       1.51102450      -3.21494890
Ag      -3.63043654      -0.77658732       1.52030960
Ag      -4.15907379      -1.28906689      -1.38181116
Ag       2.80199242       0.48997128      -1.13812820
Ag       0.47813723      -0.77564224      -1.75188830
Ag       1.52195858       2.94720978      -0.98367977
Ag      -0.33841846      -0.77797124      -4.43298700
Ag       1.74382029      -1.52817814       0.72999064
