30
Properties=species:S:1:pos:R:3 calc_mode=gop-qsc opt_step=4994 total_energy=-77.04371617837879 pbc="F F F"
Ag      -0.90388137       1.31517615       3.84223299
Ag      -2.73539014      -1.54498215      -2.25651655
Ag      -1.79839770      -1.15209682       2.90086070
Ag       4.20784181      -0.63426234      -1.09256980
Ag       3.32894848       0.86670370       1.16443811
Ag      -0.54007191       4.11000138      -1.00072066
Ag      -2.96435853       3.24184943      -0.12475153
Ag       1.49711478       2.71105457       0.24721119
Ag      -0.30826641      -2.87690159      -2.58867292
Ag      -1.96949133       2.37210602      -2.74127045
Ag       1.62374547       2.25439633       3.01034854
Ag       0.59318310      -3.75035752       0.02025980
Ag      -2.69049683       1.03693015       1.59747107
Ag       0.35412142       0.23840642       1.68393243
Ag      -0.90581732       1.36835040      -0.48446997
Ag       2.59742066      -1.82119762       0.88138127
Ag       2.34947644      -0.44466659       3.40204528
Ag       2.24186429      -2.39778631      -1.83679974
Ag       0.89525498       2.28380703      -2.52428079
Ag       2.44230110       0.00262089      -3.33193703
Ag      -1.71172753      -3.59082075       1.69685826
Ag       1.50997516       0.07385794      -0.80720212
Ag      -0.79386856      -1.43981093      -0.18388006
Ag      -3.39148809      -1.58404116       0.55891394
Ag       3.47353267       1.94952168      -1.53597949
Ag      -0.43231273      -0.11799548      -2.82977332
Ag      -2.21172373      -3.85033790      -0.90826444
Ag      -0.79911361       3.09457992       1.71849934
Ag       0.59295756      -2.44590692       2.57518372
Ag      -3.55133214       0.73180205      -1.05254777
