30
Properties=species:S:1:pos:R:3 calc_mode=gop-qsc opt_step=718 total_energy=-76.58714654941171 pbc="F F F"
Ag      -1.88959596       0.08497699       4.12615972
Ag       2.71565242      -2.52897603      -3.55225640
Ag       3.72130957       0.01178054      -2.76020709
Ag      -2.37605341      -1.84739017       2.24398613
Ag       3.62407592       1.85410826      -0.57022310
Ag       2.74274979      -0.08765853       2.39431338
Ag       0.22499548      -1.14826234       2.74887091
Ag       3.71737392      -0.81794695      -0.10838737
Ag       1.55244299       3.66701010      -0.48928585
Ag      -0.83506507       2.28916071      -0.93670479
Ag       1.43145249      -1.08826931      -1.68345852
Ag      -0.79077600      -1.29938760      -0.03702019
Ag       0.23930727      -3.57567568      -1.31377967
Ag      -2.23656270       2.66146911       3.35620176
Ag      -2.01313998      -3.76150987       0.26483231
Ag      -3.92873160       0.44987288       1.93369417
Ag       1.18407158       0.78944179       0.33256604
Ag       1.45207900      -0.20848696      -4.38289805
Ag       2.50282358       2.65154273       1.89770732
Ag       1.48917262       1.65752447      -2.37122033
Ag      -2.90939868       0.44412271      -0.77151214
Ag      -4.02208407      -1.85981671       0.09570895
Ag      -2.31051217      -2.26119189      -2.08307406
Ag      -0.86184331       0.07802373      -2.65795600
Ag      -0.07279328      -2.38496002      -3.74745783
Ag      -1.29691882       0.84252163       1.51343063
Ag      -3.00427099       2.85085012       0.71799468
Ag      -0.23724287       3.39833745       1.57050940
Ag       1.66401674      -2.36545458       0.79302685
Ag       0.52346551       1.50424341       3.47643916
