30
Properties=species:S:1:pos:R:3 calc_mode=gop-qsc opt_step=3551 total_energy=-76.783356690777 pbc="F F F"
Ag       0.90203907      -3.58662137      -1.59396071
Ag       3.79141272      -0.51585061       1.93463319
Ag       1.50798671      -3.29349312      -4.24828067
Ag      -2.97532328       1.73866397      -1.66373415
Ag      -2.00427275      -0.87590432      -1.08959582
Ag       1.24023483       0.08034348       1.10843843
Ag       1.55724041      -2.01536535       2.85609079
Ag       2.55292004      -2.30450912       0.24361739
Ag      -1.47274895       0.07111792       1.53597750
Ag       1.40295054      -0.55837472      -4.16374802
Ag       1.56206095       1.69952621      -2.48979103
Ag       2.55737115       1.76675556       2.82185737
Ag       0.00928723       2.51276141       2.07799983
Ag      -4.01456956       0.29773053       0.51581887
Ag      -2.15798084       1.74202032       3.61017181
Ag      -0.95724086       0.60346591      -3.25684233
Ag      -2.53297096       2.63812226       0.94412309
Ag       0.28414524       0.30374952       3.75431450
Ag      -0.46002423       1.48892462      -0.58722157
Ag      -3.60988150      -0.53927429       3.17248237
Ag      -0.79623057       3.28395872      -2.63928165
Ag      -0.80187206      -2.17498674      -3.29308338
Ag      -0.35680387       4.18196969      -0.08569520
Ag      -2.99426255      -2.26385560       1.12199232
Ag       2.02247363       2.60809438       0.13917386
Ag      -1.21899843      -2.01841008       3.30321033
Ag      -0.23956930      -2.33774327       0.67026796
Ag       0.79447028      -0.82108545      -1.47889748
Ag       3.29928667       0.26015785      -0.75766545
Ag       3.10887024      -1.97188830      -2.46237215
