30
Properties=species:S:1:pos:R:3 calc_mode=gop-qsc opt_step=1080 total_energy=-76.97038587560505 pbc="F F F"
Ag      -4.57776072       0.44537831       0.53136277
Ag      -3.12305248       0.57450346      -1.93419107
Ag      -1.10007875       0.68231811      -3.85793408
Ag       1.74568538       2.47253919      -1.64958782
Ag       2.92658026      -1.24506891       1.81274003
Ag      -1.90950429      -1.89693174      -2.77997071
Ag      -1.61528444      -2.85309418       2.10570683
Ag       2.10057541      -0.23790010      -0.67527132
Ag       0.91710522      -2.17235897      -2.73300043
Ag      -1.05395758       2.57735322      -1.59873264
Ag       0.73077694       1.92717635       0.78245693
Ag       2.49954261      -2.91702933      -0.42185068
Ag      -1.42047115       3.67602080       1.09362702
Ag      -0.32352555      -2.91208353      -0.41910099
Ag       1.65386933       0.38906636      -3.38989032
Ag       4.11823752       1.12505567      -1.93338190
Ag      -0.44053012      -0.12984443      -1.38804516
Ag      -0.31789628      -1.10521664       3.89771060
Ag      -3.55062675       2.31267918       2.33483333
Ag      -2.68479401      -1.52092921      -0.08424709
Ag       4.73775178      -0.95678948      -0.21004276
Ag       1.69117767       0.77677485       3.11429689
Ag       0.10808347      -0.74511550       1.27573866
Ag      -0.93515830       1.56970794       3.07808736
Ag      -3.63754596       2.91549156      -0.43715693
Ag       3.51043146       1.41030107       0.91773120
Ag       1.07847670      -3.23552748       2.02539774
Ag      -1.89940650       1.04510906       0.55494711
Ag      -2.82507743      -0.45004446       2.64335949
Ag       3.59637654      -1.52154120      -2.65559208
