30
Properties=species:S:1:pos:R:3 calc_mode=gop-qsc opt_step=2974 total_energy=-77.11646600899535 pbc="F F F"
Ag      -1.53061324      -0.66010176       3.39748488
Ag       3.84453441       2.36966722      -0.30704188
Ag       3.62552770       0.83237313      -2.57920772
Ag      -3.13849375       1.34729246      -0.73178289
Ag      -0.85745358      -2.43882428      -2.76374813
Ag      -0.56804505       1.77581945       0.50012342
Ag      -0.39554103       1.90179628       3.24771194
Ag      -0.27960988      -2.81238880       2.05265857
Ag      -4.41502802      -0.58635057       0.80934875
Ag       3.31829674      -1.53456764      -1.10223999
Ag       1.67185631       0.71667739      -0.64602988
Ag       0.85957526      -0.26771712       1.92727575
Ag      -0.03490375       4.20401306       1.67832492
Ag      -0.85952606       0.26779963      -1.92746395
Ag      -2.50293511       3.73077969       0.55617927
Ag       1.10469690       1.99089420      -3.02296052
Ag      -2.88609613       1.39972481       2.07219123
Ag      -1.74480241      -3.38491989      -0.28299981
Ag      -1.67194601      -0.71663149       0.64609761
Ag      -3.15963394      -1.35046924      -1.58524098
Ag      -1.19775179       3.07949521      -1.84492236
Ag       0.82485512      -4.44998239       0.09243837
Ag       1.31251596       3.51955606      -0.68694319
Ag       1.44101845      -0.81818094      -3.07507165
Ag       1.97737675       2.28344062       1.75424209
Ag      -3.05533262      -2.61588459       2.07687300
Ag       2.45070222      -2.54230248       1.36110986
Ag       0.56804753      -1.77598425      -0.50010125
Ag       3.58539934       0.01963080       1.21057276
Ag       1.71330968      -3.48465456      -2.32687823
