30
Properties=species:S:1:pos:R:3 calc_mode=gop-qsc opt_step=200 total_energy=-77.16029780077386 pbc="F F F"
Ag      -1.38790816       0.39279470       3.83298560
Ag       0.48079973      -1.86304865       3.66385890
Ag      -0.07928198      -3.95958520      -1.39219194
Ag       2.57373289      -1.55055785       1.59913327
Ag       2.40211270       0.02707926       3.85505111
Ag       2.96291734      -0.48297532      -2.89624782
Ag       0.66232506       3.68095987      -1.90779664
Ag      -0.73773067       1.44888327      -0.59464355
Ag      -1.87413028      -2.00187568       2.29122534
Ag      -1.69329631       3.98111045      -0.42302674
Ag      -1.00971518      -1.34675629      -0.40642197
Ag      -1.42748173       2.60906781       1.97966326
Ag       4.16795950      -0.43227999      -0.42132529
Ag       2.37721356      -2.69159688      -1.00411798
Ag      -1.69440680       2.74757313      -2.93574023
Ag      -2.22666910      -2.73803541      -2.56604924
Ag       0.67246854       1.14560730      -3.02126587
Ag      -3.71869780      -1.15298691      -0.84581610
Ag       2.84209671       1.22869128       1.41153346
Ag       1.45470536      -0.18519936      -0.64806727
Ag       0.22077758       0.09443774       1.72696918
Ag       0.40176776      -1.64472362      -2.83319153
Ag       0.99394105       3.12393432       0.74041067
Ag      -2.42984302      -3.60339037       0.08831664
Ag      -2.67050387       0.34082974       1.22279585
Ag       2.83455624       2.02891551      -1.32233173
Ag       0.87495990       2.20670547       3.38906341
Ag      -1.92171259       0.00405188      -2.70581309
Ag      -3.43913595       1.72064706      -1.03869446
Ag       0.38817955      -3.12827727       1.16173475
