30
Properties=species:S:1:pos:R:3 calc_mode=gop-qsc opt_step=1974 total_energy=-77.01661849181359 pbc="F F F"
Ag      -1.24051012       4.55560320      -1.22206906
Ag       1.62680052       1.58241971       2.46164400
Ag       0.37343950      -3.87201485      -1.15582273
Ag       0.21526371       3.14355170       0.61628416
Ag      -1.26867685       2.50480842      -3.06627964
Ag      -0.69510901       1.52974730       3.99822672
Ag      -1.87932742      -1.81118399       2.25632293
Ag       3.98184489       0.32505863       1.66972267
Ag      -0.02154531       0.13961320      -3.86607627
Ag       1.55745410      -0.56805897       0.64865792
Ag       0.53449134      -3.06760359       1.52938936
Ag       1.43376257      -1.43579127      -2.06297673
Ag      -3.31310452      -0.32606548       0.35853783
Ag       0.13723215       0.98221282      -1.21392160
Ag      -0.84571412       0.66001985       1.38605039
Ag       2.61767617       1.92847536      -0.17080560
Ag       3.82458629      -0.47201095      -0.98048004
Ag      -2.32740086       0.01680187      -2.27687053
Ag      -3.09646145       0.59881159       2.97701827
Ag       1.14569681       3.43817968      -2.03735914
Ag      -1.02159907      -2.34582083      -3.04363408
Ag      -3.26033197      -2.47352173      -1.41355819
Ag      -0.86829694      -1.50584279      -0.38441074
Ag       2.80229453      -2.93246048      -0.12043645
Ag      -2.32907100       2.16015446      -0.46829615
Ag      -2.09235212       3.04527252       2.14490345
Ag       2.94679781      -2.06756079       2.52048917
Ag       0.55094806      -0.87037575       3.29227645
Ag       2.40384386       1.07753695      -2.83349607
Ag      -1.89263155      -3.93995579       0.45696971
