30
Properties=species:S:1:pos:R:3 calc_mode=gop-qsc opt_step=101 total_energy=-77.08227997755617 pbc="F F F"
Ag      -2.68460237       1.46008121       3.38880486
Ag       2.96042759       1.48128813      -3.12804466
Ag      -4.03701065      -0.17892574       0.08002219
Ag       2.96119671      -2.57265189       0.43845286
Ag       3.79014912       0.00498713       1.15762465
Ag       2.12861369      -1.07571106      -3.85054737
Ag       1.16346909       3.34142390      -2.16330234
Ag       0.47849027       1.50105130      -0.22467172
Ag       1.78210530      -2.79965756       2.94893360
Ag      -1.19137498       3.66794313      -0.65602835
Ag      -1.52779971       0.20168537       1.21180563
Ag      -0.68807673       2.81104488       1.98833034
Ag       2.34430958      -0.38299541      -1.18844379
Ag       1.46678929      -2.96656249      -1.91130433
Ag      -3.19780085       2.38424299       0.80940103
Ag      -2.86139495      -1.46504810      -2.10628859
Ag      -2.06631608       1.12959765      -1.43920921
Ag      -0.89174042      -1.99872419       2.85668934
Ag       3.15650693       2.21594798      -0.44694967
Ag      -0.36599373      -1.10676258      -0.95209145
Ag       1.13161771      -0.68488915       1.38199751
Ag      -0.51801644      -1.82255029      -3.61724180
Ag       1.31487191       4.08597148       0.51266405
Ag       0.28141683      -3.31838678       0.65893664
Ag      -0.04904252       0.57193337       3.57070283
Ag       0.27833559       0.78627154      -2.94113801
Ag       1.97790058       1.89131338       2.11944839
Ag      -2.39921219      -2.41723836       0.51031232
Ag      -3.51565456      -1.05443163       2.67256493
Ag      -1.22216405      -3.69024820      -1.68142987
