30
Properties=species:S:1:pos:R:3 calc_mode=gop-qsc opt_step=3679 total_energy=-76.94702363527892 pbc="F F F"
Ag       2.60051677       2.90642846      -2.63754051
Ag      -1.98148762      -3.02765524       2.29572478
Ag       1.12536579       4.60109027      -0.91922285
Ag      -2.88930113       2.25949174      -1.97247419
Ag      -1.30367145       0.05323852      -2.37965571
Ag       2.24229936      -1.23259824       3.06384001
Ag       0.68915987      -3.03052009       1.60044737
Ag       3.40194607      -2.48903137       0.93485383
Ag      -1.28942448      -1.35965805       0.12442886
Ag       4.00420946       0.78351102      -1.42155370
Ag       1.94612295       2.09225570      -0.11727936
Ag      -0.46779210      -0.74442164       2.71168124
Ag      -1.45417674       1.83328247       2.73789717
Ag      -3.61347234      -0.14997319      -0.82586492
Ag      -3.12084649      -0.38243661       1.92918162
Ag      -0.15091427       2.63571552      -2.32366055
Ag      -3.33761613       2.15146643       0.74987180
Ag      -3.73736689      -2.69900695       0.26554062
Ag      -0.74208941       1.34950120       0.10289276
Ag      -2.49188753      -2.44512552      -2.16284778
Ag      -1.57750512       4.03736785      -0.36485794
Ag       3.04887559      -1.79919461      -1.68156831
Ag       0.29568910       3.65288684       1.55183417
Ag       0.29944436      -2.19657788      -1.98537841
Ag       1.33809852       1.29220913       2.44480425
Ag      -1.12186662      -4.04517835      -0.28325089
Ag       1.75821367      -4.07273494      -0.67019353
Ag       1.35998896      -0.65358331       0.29106787
Ag       3.73156469       0.30677153       1.27578233
Ag       1.43792316       0.37247932      -2.33450003
