30
Properties=species:S:1:pos:R:3 calc_mode=gop-qsc opt_step=947 total_energy=-76.77100662940714 pbc="F F F"
Ag       0.75898365       3.54715276      -2.97730510
Ag      -1.95241275       3.45703112      -2.07389165
Ag      -1.82045587       2.95526940       0.80549596
Ag       3.22593941      -1.15219372      -1.18662436
Ag       0.36894499      -1.27425351       3.01590971
Ag      -2.13109704      -1.32314705      -2.84507739
Ag      -3.46500894       0.83226078       1.31942736
Ag       1.09470507      -2.04433979       0.40784895
Ag      -0.93551362      -3.17798111      -1.20400353
Ag       2.21319784       1.17344129      -2.48974278
Ag       2.01488753       0.65279195       0.45623357
Ag      -1.06727490      -3.25984428       1.58010103
Ag       2.43707300       3.25855626      -0.68718007
Ag      -2.91476649      -1.65534814      -0.00642385
Ag       1.72301089      -3.29906894      -2.00563242
Ag       3.36877950      -3.53508155       0.31438523
Ag       0.37019285      -0.75415018      -1.86750719
Ag      -0.98505971       1.31189249       3.01861890
Ag       0.02221878       4.65275762      -0.50481810
Ag      -2.51628640       0.84529562      -1.28100731
Ag       1.65223862      -3.69207283       2.55625209
Ag       1.85571906       0.98169460       3.19465420
Ag      -0.79343255      -0.10177317       0.72469939
Ag       0.82701494       2.94486922       1.58139796
Ag      -0.77014331       1.21368135      -3.46766933
Ag       3.11229951      -1.32131962       2.10105740
Ag      -2.38406387      -1.17208883       2.79643790
Ag       0.03259917       1.90541065      -0.92919745
Ag      -4.20209517       2.84480459      -0.51322382
Ag       0.85980583      -4.81424697       0.16678471
