30
Properties=species:S:1:pos:R:3 calc_mode=gop-qsc opt_step=973 total_energy=-76.82563909557443 pbc="F F F"
Ag      -4.14268279       1.75021627      -0.82048147
Ag       0.49855634       0.05190981      -5.17167935
Ag      -1.14839247      -0.06855778       4.67897920
Ag      -2.23391174      -2.66122027       1.95877350
Ag       0.52169329       2.95859463      -1.42554982
Ag       1.21399407      -2.76321895      -1.41133852
Ag      -1.11844570       3.60952630       0.77536988
Ag       2.26082504      -1.14197559      -3.43492227
Ag       0.16283863      -3.72456493       1.02862575
Ag      -0.57814029      -1.50115757      -3.19233361
Ag      -3.54819505      -0.59547268       0.54785393
Ag      -0.72549622       2.29163174       3.22020436
Ag       1.29038512       0.33959922       3.44716610
Ag       0.11910518      -2.21565082       3.39087106
Ag       0.91322560       1.65663248       1.01727675
Ag      -1.48134235       1.14409180      -0.43001125
Ag      -2.19621623       3.42299413      -1.80513590
Ag       3.39731374       0.39886412       1.56334636
Ag      -2.95066608      -0.36466446      -2.21181865
Ag      -1.15985227      -0.13701516       1.97208002
Ag      -1.19058048      -1.70628444      -0.44974339
Ag       1.91059790       1.63663177      -3.44773018
Ag       3.00739633       1.73326367      -0.86734247
Ag       0.84312351       0.09173444      -1.41881334
Ag      -0.94502471       1.33256567      -3.20581006
Ag       1.19919242      -1.17005510       0.99660388
Ag       2.87833198      -1.90794087       3.06542269
Ag       3.36123504      -1.03628218      -0.83884186
Ag       2.91635660      -3.31826388       0.71333134
Ag      -3.07522440       1.89406864       1.75564733
