30
Properties=species:S:1:pos:R:3 calc_mode=gop-qsc opt_step=725 total_energy=-76.60897158859898 pbc="F F F"
Ag      -0.24275996      -2.66298810      -4.66873127
Ag       2.87775010       0.59955596       3.38464083
Ag      -0.79386888      -0.00546487      -4.47796271
Ag      -0.74450654      -3.52581809       2.42903350
Ag       3.68289958       1.76634859       1.01624923
Ag       3.59060999      -1.15233597       1.12660185
Ag       1.12946502      -2.55234599       0.54938923
Ag       2.72957810       0.43180161      -1.26274964
Ag       1.46021725       2.79931321      -0.38681582
Ag      -1.12030837       3.49067551      -1.56519733
Ag       1.54679075      -0.98166726      -3.38814450
Ag      -0.94860887      -0.95073874       1.64384295
Ag       0.44860811      -3.20235356      -2.08591239
Ag       0.04419114       0.66478829       3.63498293
Ag      -1.57122280      -2.99347041      -0.18500021
Ag      -3.09804251       0.68324919       2.15403063
Ag       1.36162781       0.32484350       1.11732520
Ag      -2.09455282       1.04993430      -2.30456041
Ag       1.31945507       2.78401571       2.39287122
Ag       0.61298146       1.60246586      -2.71628086
Ag      -3.44336850       2.28876429      -0.17291589
Ag      -3.28720554      -2.25223750       1.91415115
Ag      -2.93922551      -0.55922584      -0.29446199
Ag      -0.05639757      -0.60045882      -1.11365503
Ag      -1.97361604      -1.78693008      -2.69683530
Ag      -0.93914548       1.58954066       0.44230254
Ag      -1.50351885       2.79774344       2.87608817
Ag      -0.44452026       4.35401078       0.92088877
Ag       3.00738312      -2.28100327      -1.40826147
Ag       1.38931104      -1.72001241       3.12508661
