30
Properties=species:S:1:pos:R:3 calc_mode=gop-qsc opt_step=1304 total_energy=-77.0633612915527 pbc="F F F"
Ag       2.34630079       0.45274840      -3.44967689
Ag       2.23076284       1.97827342       3.14461838
Ag      -2.02489132      -3.58466788       1.95032463
Ag      -1.02134555      -0.28017922      -4.11316906
Ag       0.15091030       2.18545277      -3.60147695
Ag      -3.22354148      -1.34828760       0.86564000
Ag      -1.33874617      -1.07999745       2.90157057
Ag       1.31181364       0.67867314       0.77785012
Ag       2.19197631      -1.96515679      -2.01772412
Ag       3.49648312       2.52191944       0.75871794
Ag      -0.42789104      -1.62005451       0.34118269
Ag       1.86509626       2.40185313      -1.43671615
Ag      -4.04011032       1.04422685      -0.35461932
Ag      -2.33017061       1.61785774      -2.50274063
Ag       0.81871379       3.36873548       1.13464180
Ag      -2.42613705      -0.96304079      -1.71756819
Ag       0.62072703      -3.24383913       2.35730968
Ag       0.73147676      -3.93159517      -0.43936163
Ag      -0.71638696       3.30871187      -1.13931569
Ag      -1.40720710       0.94707646       0.23179252
Ag       0.27233639       0.08882662      -1.74484676
Ag      -2.10664565      -3.55760500      -0.75052741
Ag      -2.02167984       3.35425137       1.33373260
Ag       2.37548722      -1.92510949       0.71312635
Ag       3.48103312       0.19466232      -0.87249210
Ag      -3.18880124       1.01337270       2.33991371
Ag      -0.47322563       1.53836635       2.83014014
Ag       1.39799926      -0.70159667       3.14568691
Ag       3.83105857       0.05924563       1.94325544
Ag      -0.37539546      -2.55312398      -2.62926860
