30
Properties=species:S:1:pos:R:3 calc_mode=gop-qsc opt_step=3737 total_energy=-76.88270916640121 pbc="F F F"
Ag      -0.67491361      -0.58583132      -3.36746963
Ag      -2.20866510      -3.09225523       0.36779286
Ag       1.23491275       2.08725207       4.45152365
Ag      -1.97575002       3.66214696       0.24259664
Ag      -1.26708831       1.84514695      -1.85014389
Ag       2.57597034      -2.03573271       0.94124739
Ag       0.45929438      -3.78913734      -0.04778162
Ag       2.73607000      -3.24663765      -1.64494389
Ag      -1.68819637      -0.69647101      -0.77256870
Ag       3.52685039      -0.52030412      -1.27569293
Ag       3.46254064       2.24163269      -0.59995066
Ag      -0.14628394      -1.46749391       1.52912770
Ag      -0.80556990       0.52753865       3.48988952
Ag      -3.54189784       1.32589149      -0.18020192
Ag      -2.84756829      -0.61871180       1.78228740
Ag       0.78366847       3.14024346      -0.23596092
Ag      -2.89369366       2.17256698       2.47738555
Ag      -4.29359367      -1.41071848      -0.55501145
Ag      -0.92808615       1.23684988       0.87467563
Ag      -3.36025536       0.09852658      -2.75405056
Ag      -0.23767879       3.29655092       2.47987301
Ag       2.05894678      -1.31585398      -3.59429637
Ag       2.47770887       2.58691759       2.05901905
Ag       0.85087781      -1.35933990      -1.16677948
Ag       1.91189539      -0.18225097       3.06851053
Ag      -2.52204495      -2.62901932      -2.45292845
Ag       0.14392661      -3.32439035      -2.86794956
Ag       1.61094215       0.57356731       0.48092473
Ag       4.14681115       0.33316588       1.38628277
Ag       1.41087023       1.14615069      -2.26540639
