30
Properties=species:S:1:pos:R:3 calc_mode=gop-qsc opt_step=322 total_energy=-76.86697697508953 pbc="F F F"
Ag      -0.23124160       4.03914229       0.74135273
Ag       2.72802158      -1.95899234      -3.55399564
Ag       0.25496463      -0.69402141      -3.90294708
Ag      -1.70138038      -0.45748965       0.52141607
Ag      -0.58291669      -0.30466825       3.15030149
Ag       3.26613891      -1.80395630      -0.78030133
Ag      -0.99899123      -3.17481626       0.26233211
Ag       3.15370586      -1.91853952       2.05922144
Ag      -1.88154472       1.21408971      -3.02409937
Ag       0.80108188       1.99798853      -3.61608051
Ag       0.14335326       0.41591241      -1.40884435
Ag       0.25055798       1.42765436       1.09860149
Ag      -1.84292490      -1.49294417      -2.08352892
Ag       2.27281480       3.08697899       1.80513438
Ag      -4.15394242      -0.16739322       1.62607542
Ag       0.15631225       2.51071848       3.56078909
Ag      -2.42611715      -2.26490133       2.47873920
Ag      -2.06817456       2.15239010      -0.35909977
Ag       2.05493930       0.47081695       3.01630461
Ag       2.99013087       0.69801685       0.43685347
Ag      -2.25095693       1.75003086       2.34999220
Ag       0.74181293      -2.41863339      -1.76391790
Ag      -0.65968896       3.68090542      -2.06092069
Ag      -3.64989023      -2.34330516      -0.05644376
Ag      -3.83913299       0.20600382      -1.16607246
Ag       0.37332396      -2.88861179       2.74843668
Ag       0.94670033      -1.17026793       0.72642748
Ag       1.67687533       2.74412763      -0.95828010
Ag       2.71833021       0.46235903      -2.34000302
Ag       1.75783869      -3.79859470       0.49255702
